<?xml version="1.0" encoding="UTF-8"?>

<!-- generated on 2024-05-01 13:35:21 by Eclipse SUMO netedit Version 1.19.0
<configuration xmlns:xsi="http://www.w3.org/2001/XMLSchema-instance" xsi:noNamespaceSchemaLocation="http://sumo.dlr.de/xsd/neteditConfiguration.xsd">

    <input>
        <sumo-net-file value="C:\Users\Anand Suresh\Downloads\RL final project\network1.net.xml"/>
    </input>

    <output>
        <output-file value="C:\Users\Anand Suresh\Downloads\RL final project\network1.net.xml"/>
    </output>

    <processing>
        <geometry.min-radius.fix.railways value="false"/>
        <geometry.max-grade.fix value="false"/>
        <offset.disable-normalization value="true"/>
        <lefthand value="0"/>
    </processing>

    <junctions>
        <no-turnarounds value="true"/>
        <junctions.corner-detail value="5"/>
        <junctions.limit-turn-speed value="5.50"/>
        <rectangular-lane-cut value="0"/>
    </junctions>

    <pedestrian>
        <walkingareas value="0"/>
    </pedestrian>

</configuration>
-->

<net version="1.16" junctionCornerDetail="5" limitTurnSpeed="5.50" xmlns:xsi="http://www.w3.org/2001/XMLSchema-instance" xsi:noNamespaceSchemaLocation="http://sumo.dlr.de/xsd/net_file.xsd">

    <location netOffset="-586905.84,-4512883.74" convBoundary="234.31,836.27,931.10,1274.44" origBoundary="-73.970354,40.762329,-73.952330,40.786277" projParameter="+proj=utm +zone=18 +ellps=WGS84 +datum=WGS84 +units=m +no_defs"/>

    <type id="highway.primary" priority="12" numLanes="2" speed="27.78" disallow="tram rail_urban rail rail_electric rail_fast ship" oneway="0"/>
    <type id="highway.residential" priority="3" numLanes="1" speed="13.89" disallow="tram rail_urban rail rail_electric rail_fast ship" oneway="0"/>
    <type id="highway.secondary" priority="11" numLanes="1" speed="27.78" disallow="tram rail_urban rail rail_electric rail_fast ship" oneway="0"/>

    <edge id=":10122943671_0" function="internal">
        <lane id=":10122943671_0_0" index="0" disallow="tram rail_urban rail rail_electric rail_fast ship" speed="11.18" length="0.24" shape="515.46,896.68 515.67,896.56"/>
    </edge>
    <edge id=":10122943672_0" function="internal">
        <lane id=":10122943672_0_0" index="0" disallow="tram rail_urban rail rail_electric rail_fast ship" speed="11.18" length="0.30" shape="481.33,914.98 481.07,915.12"/>
    </edge>
    <edge id=":10122943678_0" function="internal">
        <lane id=":10122943678_0_0" index="0" disallow="tram rail_urban rail rail_electric rail_fast ship" speed="11.18" length="0.30" shape="369.11,981.66 369.26,981.92"/>
        <lane id=":10122943678_0_1" index="1" disallow="tram rail_urban rail rail_electric rail_fast ship" speed="11.18" length="0.30" shape="366.30,983.18 366.44,983.44"/>
        <lane id=":10122943678_0_2" index="2" disallow="tram rail_urban rail rail_electric rail_fast ship" speed="11.18" length="0.30" shape="363.48,984.70 363.62,984.96"/>
        <lane id=":10122943678_0_3" index="3" disallow="tram rail_urban rail rail_electric rail_fast ship" speed="11.18" length="0.30" shape="360.67,986.22 360.81,986.48"/>
    </edge>
    <edge id=":10122943679_0" function="internal">
        <lane id=":10122943679_0_0" index="0" disallow="tram rail_urban rail rail_electric rail_fast ship" speed="11.18" length="0.30" shape="362.51,969.43 362.66,969.72"/>
        <lane id=":10122943679_0_1" index="1" disallow="tram rail_urban rail rail_electric rail_fast ship" speed="11.18" length="0.30" shape="359.70,970.97 359.85,971.24"/>
        <lane id=":10122943679_0_2" index="2" disallow="tram rail_urban rail rail_electric rail_fast ship" speed="11.18" length="0.30" shape="356.90,972.51 357.03,972.76"/>
        <lane id=":10122943679_0_3" index="3" disallow="tram rail_urban rail rail_electric rail_fast ship" speed="11.18" length="0.30" shape="354.09,974.05 354.22,974.28"/>
    </edge>
    <edge id=":10122943680_0" function="internal">
        <lane id=":10122943680_0_0" index="0" disallow="tram rail_urban rail rail_electric rail_fast ship" speed="11.18" length="0.13" shape="370.91,973.94 371.03,973.88"/>
    </edge>
    <edge id=":10122943681_0" function="internal">
        <lane id=":10122943681_0_0" index="0" disallow="tram rail_urban rail rail_electric rail_fast ship" speed="11.18" length="0.29" shape="352.45,983.71 352.19,983.85"/>
    </edge>
    <edge id=":10125087306_0" function="internal">
        <lane id=":10125087306_0_0" index="0" disallow="tram rail_urban rail rail_electric rail_fast ship" speed="11.18" length="0.32" shape="795.19,1132.59 794.99,1132.22"/>
        <lane id=":10125087306_0_1" index="1" disallow="tram rail_urban rail rail_electric rail_fast ship" speed="11.18" length="0.32" shape="798.01,1131.08 797.86,1130.79"/>
        <lane id=":10125087306_0_2" index="2" disallow="tram rail_urban rail rail_electric rail_fast ship" speed="11.18" length="0.32" shape="800.83,1129.57 800.72,1129.37"/>
    </edge>
    <edge id=":10125087307_0" function="internal">
        <lane id=":10125087307_0_0" index="0" disallow="tram rail_urban rail rail_electric rail_fast ship" speed="13.89" length="0.18" shape="802.78,1120.64 802.62,1120.73"/>
    </edge>
    <edge id=":10125087308_0" function="internal">
        <lane id=":10125087308_0_0" index="0" disallow="tram rail_urban rail rail_electric rail_fast ship" speed="13.89" length="0.30" shape="785.50,1129.96 785.24,1130.10"/>
    </edge>
    <edge id=":10125087309_0" function="internal">
        <lane id=":10125087309_0_0" index="0" disallow="tram rail_urban rail rail_electric rail_fast ship" speed="11.18" length="0.29" shape="756.58,1061.91 756.43,1061.62"/>
        <lane id=":10125087309_0_1" index="1" disallow="tram rail_urban rail rail_electric rail_fast ship" speed="11.18" length="0.29" shape="759.39,1060.38 759.25,1060.12"/>
        <lane id=":10125087309_0_2" index="2" disallow="tram rail_urban rail rail_electric rail_fast ship" speed="11.18" length="0.29" shape="762.20,1058.84 762.08,1058.62"/>
    </edge>
    <edge id=":10125087310_0" function="internal">
        <lane id=":10125087310_0_0" index="0" disallow="tram rail_urban rail rail_electric rail_fast ship" speed="11.18" length="0.35" shape="788.84,1120.89 788.62,1120.49"/>
        <lane id=":10125087310_0_1" index="1" disallow="tram rail_urban rail rail_electric rail_fast ship" speed="11.18" length="0.35" shape="791.60,1119.26 791.43,1118.96"/>
        <lane id=":10125087310_0_2" index="2" disallow="tram rail_urban rail rail_electric rail_fast ship" speed="11.18" length="0.35" shape="794.35,1117.63 794.23,1117.42"/>
    </edge>
    <edge id=":10125087311_0" function="internal">
        <lane id=":10125087311_0_0" index="0" disallow="tram rail_urban rail rail_electric rail_fast ship" speed="11.18" length="0.30" shape="718.79,991.66 718.65,991.40"/>
        <lane id=":10125087311_0_1" index="1" disallow="tram rail_urban rail rail_electric rail_fast ship" speed="11.18" length="0.30" shape="721.61,990.14 721.47,989.88"/>
        <lane id=":10125087311_0_2" index="2" disallow="tram rail_urban rail rail_electric rail_fast ship" speed="11.18" length="0.30" shape="724.43,988.62 724.28,988.36"/>
    </edge>
    <edge id=":10125087312_0" function="internal">
        <lane id=":10125087312_0_0" index="0" disallow="tram rail_urban rail rail_electric rail_fast ship" speed="11.18" length="0.30" shape="750.02,1049.63 749.88,1049.38"/>
        <lane id=":10125087312_0_1" index="1" disallow="tram rail_urban rail rail_electric rail_fast ship" speed="11.18" length="0.30" shape="752.84,1048.12 752.70,1047.86"/>
        <lane id=":10125087312_0_2" index="2" disallow="tram rail_urban rail rail_electric rail_fast ship" speed="11.18" length="0.30" shape="755.66,1046.61 755.52,1046.34"/>
    </edge>
    <edge id=":10125087313_0" function="internal">
        <lane id=":10125087313_0_0" index="0" disallow="tram rail_urban rail rail_electric rail_fast ship" speed="11.18" length="0.30" shape="765.18,1048.95 765.44,1048.81"/>
    </edge>
    <edge id=":10125087314_0" function="internal">
        <lane id=":10125087314_0_0" index="0" disallow="tram rail_urban rail rail_electric rail_fast ship" speed="11.18" length="0.30" shape="746.58,1058.97 746.84,1058.83"/>
    </edge>
    <edge id=":10125087315_0" function="internal">
        <lane id=":10125087315_0_0" index="0" disallow="tram rail_urban rail rail_electric rail_fast ship" speed="11.18" length="0.10" shape="726.17,979.22 726.17,979.22"/>
    </edge>
    <edge id=":10125087316_0" function="internal">
        <lane id=":10125087316_0_0" index="0" disallow="tram rail_urban rail rail_electric rail_fast ship" speed="11.18" length="0.30" shape="709.17,988.41 708.91,988.55"/>
    </edge>
    <edge id=":10125139619_0" function="internal">
        <lane id=":10125139619_0_0" index="0" disallow="tram rail_urban rail rail_electric rail_fast ship" speed="11.18" length="8.21" shape="700.17,957.18 698.81,955.19 697.56,954.04 696.32,952.89 694.96,950.91"/>
        <lane id=":10125139619_0_1" index="1" disallow="tram rail_urban rail rail_electric rail_fast ship" speed="11.18" length="8.21" shape="702.98,955.66 701.62,953.67 700.38,952.52 699.13,951.37 697.77,949.38"/>
        <lane id=":10125139619_0_2" index="2" disallow="tram rail_urban rail rail_electric rail_fast ship" speed="11.18" length="8.21" shape="705.80,954.14 704.44,952.15 703.19,951.00 701.94,949.85 700.58,947.86"/>
        <lane id=":10125139619_0_3" index="3" disallow="tram rail_urban rail rail_electric rail_fast ship" speed="11.18" length="8.21" shape="705.80,954.14 704.88,951.91 704.60,950.24 704.32,948.57 703.40,946.34"/>
    </edge>
    <edge id=":10125222325_0" function="internal">
        <lane id=":10125222325_0_0" index="0" disallow="tram rail_urban rail rail_electric rail_fast ship" speed="11.18" length="0.30" shape="670.74,1200.28 670.88,1200.55"/>
        <lane id=":10125222325_0_1" index="1" disallow="tram rail_urban rail rail_electric rail_fast ship" speed="11.18" length="0.30" shape="667.92,1201.80 668.06,1202.06"/>
        <lane id=":10125222325_0_2" index="2" disallow="tram rail_urban rail rail_electric rail_fast ship" speed="11.18" length="0.30" shape="665.10,1203.31 665.24,1203.57"/>
    </edge>
    <edge id=":10125222326_0" function="internal">
        <lane id=":10125222326_0_0" index="0" disallow="tram rail_urban rail rail_electric rail_fast ship" speed="11.18" length="0.30" shape="649.71,1211.74 649.57,1211.48"/>
        <lane id=":10125222326_0_1" index="1" disallow="tram rail_urban rail rail_electric rail_fast ship" speed="11.18" length="0.30" shape="652.52,1210.21 652.38,1209.95"/>
        <lane id=":10125222326_0_2" index="2" disallow="tram rail_urban rail rail_electric rail_fast ship" speed="11.18" length="0.30" shape="655.33,1208.69 655.19,1208.42"/>
    </edge>
    <edge id=":10125222328_0" function="internal">
        <lane id=":10125222328_0_0" index="0" disallow="tram rail_urban rail rail_electric rail_fast ship" speed="13.89" length="0.30" shape="673.87,1190.08 673.61,1190.22"/>
    </edge>
    <edge id=":10125222329_0" function="internal">
        <lane id=":10125222329_0_0" index="0" disallow="tram rail_urban rail rail_electric rail_fast ship" speed="11.18" length="0.10" shape="635.16,1119.10 635.16,1119.10"/>
    </edge>
    <edge id=":10125222330_0" function="internal">
        <lane id=":10125222330_0_0" index="0" disallow="tram rail_urban rail rail_electric rail_fast ship" speed="11.18" length="0.10" shape="601.04,1137.52 601.04,1137.52"/>
    </edge>
    <edge id=":10125222331_0" function="internal">
        <lane id=":10125222331_0_0" index="0" disallow="tram rail_urban rail rail_electric rail_fast ship" speed="11.18" length="0.30" shape="611.58,1140.37 611.43,1140.10"/>
        <lane id=":10125222331_0_1" index="1" disallow="tram rail_urban rail rail_electric rail_fast ship" speed="11.18" length="0.30" shape="614.40,1138.86 614.26,1138.60"/>
        <lane id=":10125222331_0_2" index="2" disallow="tram rail_urban rail rail_electric rail_fast ship" speed="11.18" length="0.30" shape="617.22,1137.36 617.09,1137.10"/>
    </edge>
    <edge id=":10125222332_0" function="internal">
        <lane id=":10125222332_0_0" index="0" disallow="tram rail_urban rail rail_electric rail_fast ship" speed="11.18" length="0.30" shape="632.41,1129.19 632.56,1129.45"/>
        <lane id=":10125222332_0_1" index="1" disallow="tram rail_urban rail rail_electric rail_fast ship" speed="11.18" length="0.30" shape="629.60,1130.71 629.74,1130.97"/>
        <lane id=":10125222332_0_2" index="2" disallow="tram rail_urban rail rail_electric rail_fast ship" speed="11.18" length="0.30" shape="626.78,1132.23 626.92,1132.49"/>
    </edge>
    <edge id=":10125222333_0" function="internal">
        <lane id=":10125222333_0_0" index="0" disallow="tram rail_urban rail rail_electric rail_fast ship" speed="11.18" length="0.10" shape="593.94,1058.43 593.94,1058.43"/>
        <lane id=":10125222333_0_1" index="1" disallow="tram rail_urban rail rail_electric rail_fast ship" speed="11.18" length="0.10" shape="591.13,1059.96 591.13,1059.96"/>
        <lane id=":10125222333_0_2" index="2" disallow="tram rail_urban rail rail_electric rail_fast ship" speed="11.18" length="0.10" shape="588.32,1061.49 588.32,1061.49"/>
    </edge>
    <edge id=":10125222334_0" function="internal">
        <lane id=":10125222334_0_0" index="0" disallow="tram rail_urban rail rail_electric rail_fast ship" speed="11.18" length="0.30" shape="573.17,1069.48 573.02,1069.21"/>
        <lane id=":10125222334_0_1" index="1" disallow="tram rail_urban rail rail_electric rail_fast ship" speed="11.18" length="0.30" shape="575.98,1067.95 575.84,1067.69"/>
        <lane id=":10125222334_0_2" index="2" disallow="tram rail_urban rail rail_electric rail_fast ship" speed="11.18" length="0.30" shape="578.79,1066.42 578.65,1066.17"/>
    </edge>
    <edge id=":10125222335_0" function="internal">
        <lane id=":10125222335_0_0" index="0" disallow="tram rail_urban rail rail_electric rail_fast ship" speed="11.18" length="0.30" shape="563.33,1066.81 563.07,1066.95"/>
    </edge>
    <edge id=":10125222336_0" function="internal">
        <lane id=":10125222336_0_0" index="0" disallow="tram rail_urban rail rail_electric rail_fast ship" speed="11.18" length="0.30" shape="597.51,1048.46 597.25,1048.60"/>
    </edge>
    <edge id=":10125222337_0" function="internal">
        <lane id=":10125222337_0_0" index="0" disallow="tram rail_urban rail rail_electric rail_fast ship" speed="11.18" length="0.15" shape="513.80,904.18 513.87,904.32"/>
        <lane id=":10125222337_0_1" index="1" disallow="tram rail_urban rail rail_electric rail_fast ship" speed="11.18" length="0.15" shape="510.97,905.68 511.04,905.81"/>
        <lane id=":10125222337_0_2" index="2" disallow="tram rail_urban rail rail_electric rail_fast ship" speed="11.18" length="0.15" shape="508.14,907.18 508.21,907.30"/>
    </edge>
    <edge id=":10125222338_0" function="internal">
        <lane id=":10125222338_0_0" index="0" disallow="tram rail_urban rail rail_electric rail_fast ship" speed="11.18" length="0.30" shape="490.83,916.79 490.69,916.52"/>
        <lane id=":10125222338_0_1" index="1" disallow="tram rail_urban rail rail_electric rail_fast ship" speed="11.18" length="0.30" shape="493.65,915.27 493.51,915.01"/>
        <lane id=":10125222338_0_2" index="2" disallow="tram rail_urban rail rail_electric rail_fast ship" speed="11.18" length="0.30" shape="496.47,913.76 496.33,913.50"/>
    </edge>
    <edge id=":10125222339_0" function="internal">
        <lane id=":10125222339_0_0" index="0" disallow="tram rail_urban rail rail_electric rail_fast ship" speed="11.18" length="0.42" shape="507.02,891.47 507.29,891.95"/>
        <lane id=":10125222339_0_1" index="1" disallow="tram rail_urban rail rail_electric rail_fast ship" speed="11.18" length="0.42" shape="504.26,893.09 504.47,893.45"/>
        <lane id=":10125222339_0_2" index="2" disallow="tram rail_urban rail rail_electric rail_fast ship" speed="11.18" length="0.42" shape="501.51,894.71 501.64,894.96"/>
    </edge>
    <edge id=":10125222340_0" function="internal">
        <lane id=":10125222340_0_0" index="0" disallow="tram rail_urban rail rail_electric rail_fast ship" speed="11.18" length="0.30" shape="484.18,904.41 484.03,904.14"/>
        <lane id=":10125222340_0_1" index="1" disallow="tram rail_urban rail rail_electric rail_fast ship" speed="11.18" length="0.30" shape="486.99,902.89 486.85,902.63"/>
        <lane id=":10125222340_0_2" index="2" disallow="tram rail_urban rail rail_electric rail_fast ship" speed="11.18" length="0.30" shape="489.81,901.37 489.67,901.11"/>
    </edge>
    <edge id=":10167967044_0" function="internal">
        <lane id=":10167967044_0_0" index="0" disallow="tram rail_urban rail rail_electric rail_fast ship" speed="11.18" length="0.10" shape="566.67,1057.45 566.67,1057.45"/>
        <lane id=":10167967044_0_1" index="1" disallow="tram rail_urban rail rail_electric rail_fast ship" speed="11.18" length="0.10" shape="569.49,1055.93 569.49,1055.93"/>
        <lane id=":10167967044_0_2" index="2" disallow="tram rail_urban rail rail_electric rail_fast ship" speed="11.18" length="0.10" shape="572.31,1054.41 572.31,1054.41"/>
    </edge>
    <edge id=":10167967045_0" function="internal">
        <lane id=":10167967045_0_0" index="0" disallow="tram rail_urban rail rail_electric rail_fast ship" speed="11.18" length="0.32" shape="587.50,1046.50 587.61,1046.70"/>
        <lane id=":10167967045_0_1" index="1" disallow="tram rail_urban rail rail_electric rail_fast ship" speed="11.18" length="0.32" shape="584.64,1047.92 584.79,1048.21"/>
        <lane id=":10167967045_0_2" index="2" disallow="tram rail_urban rail rail_electric rail_fast ship" speed="11.18" length="0.32" shape="581.77,1049.35 581.97,1049.72"/>
    </edge>
    <edge id=":10167967049_0" function="internal">
        <lane id=":10167967049_0_0" index="0" disallow="tram rail_urban rail rail_electric rail_fast ship" speed="11.18" length="0.10" shape="433.89,1135.80 433.89,1135.80"/>
    </edge>
    <edge id=":10167967051_0" function="internal">
        <lane id=":10167967051_0_0" index="0" disallow="tram rail_urban rail rail_electric rail_fast ship" speed="11.18" length="0.30" shape="450.49,1135.65 450.63,1135.92"/>
        <lane id=":10167967051_0_1" index="1" disallow="tram rail_urban rail rail_electric rail_fast ship" speed="11.18" length="0.30" shape="447.67,1137.17 447.81,1137.43"/>
        <lane id=":10167967051_0_2" index="2" disallow="tram rail_urban rail rail_electric rail_fast ship" speed="11.18" length="0.30" shape="444.85,1138.68 444.99,1138.95"/>
    </edge>
    <edge id=":10167967053_0" function="internal">
        <lane id=":10167967053_0_0" index="0" disallow="tram rail_urban rail rail_electric rail_fast ship" speed="11.18" length="0.10" shape="453.52,1125.26 453.52,1125.26"/>
    </edge>
    <edge id=":10167967055_0" function="internal">
        <lane id=":10167967055_0_0" index="0" disallow="tram rail_urban rail rail_electric rail_fast ship" speed="11.18" length="0.30" shape="443.65,1122.96 443.80,1123.23"/>
        <lane id=":10167967055_0_1" index="1" disallow="tram rail_urban rail rail_electric rail_fast ship" speed="11.18" length="0.30" shape="440.84,1124.49 440.98,1124.75"/>
        <lane id=":10167967055_0_2" index="2" disallow="tram rail_urban rail rail_electric rail_fast ship" speed="11.18" length="0.30" shape="438.02,1126.01 438.17,1126.27"/>
    </edge>
    <edge id=":10167967060_0" function="internal">
        <lane id=":10167967060_0_0" index="0" disallow="tram rail_urban rail rail_electric rail_fast ship" speed="11.18" length="0.30" shape="625.51,1116.45 625.65,1116.71"/>
        <lane id=":10167967060_0_1" index="1" disallow="tram rail_urban rail rail_electric rail_fast ship" speed="11.18" length="0.30" shape="622.70,1117.98 622.84,1118.24"/>
        <lane id=":10167967060_0_2" index="2" disallow="tram rail_urban rail rail_electric rail_fast ship" speed="11.18" length="0.30" shape="619.89,1119.51 620.03,1119.77"/>
    </edge>
    <edge id=":10167967061_0" function="internal">
        <lane id=":10167967061_0_0" index="0" disallow="tram rail_urban rail rail_electric rail_fast ship" speed="11.18" length="0.30" shape="604.75,1127.63 604.61,1127.37"/>
        <lane id=":10167967061_0_1" index="1" disallow="tram rail_urban rail rail_electric rail_fast ship" speed="11.18" length="0.30" shape="607.56,1126.10 607.42,1125.84"/>
        <lane id=":10167967061_0_2" index="2" disallow="tram rail_urban rail rail_electric rail_fast ship" speed="11.18" length="0.30" shape="610.38,1124.58 610.23,1124.31"/>
    </edge>
    <edge id=":10173084330_0" function="internal">
        <lane id=":10173084330_0_0" index="0" disallow="tram rail_urban rail rail_electric rail_fast ship" speed="11.18" length="0.30" shape="663.86,1187.48 664.00,1187.75"/>
        <lane id=":10173084330_0_1" index="1" disallow="tram rail_urban rail rail_electric rail_fast ship" speed="11.18" length="0.30" shape="661.04,1189.00 661.18,1189.26"/>
        <lane id=":10173084330_0_2" index="2" disallow="tram rail_urban rail rail_electric rail_fast ship" speed="11.18" length="0.30" shape="658.22,1190.52 658.36,1190.78"/>
    </edge>
    <edge id=":10173084331_0" function="internal">
        <lane id=":10173084331_0_0" index="0" disallow="tram rail_urban rail rail_electric rail_fast ship" speed="11.18" length="0.30" shape="642.80,1198.90 642.67,1198.64"/>
        <lane id=":10173084331_0_1" index="1" disallow="tram rail_urban rail rail_electric rail_fast ship" speed="11.18" length="0.30" shape="645.63,1197.40 645.49,1197.14"/>
        <lane id=":10173084331_0_2" index="2" disallow="tram rail_urban rail rail_electric rail_fast ship" speed="11.18" length="0.30" shape="648.46,1195.90 648.31,1195.63"/>
    </edge>
    <edge id=":10173250676_0" function="internal">
        <lane id=":10173250676_0_0" index="0" disallow="tram rail_urban rail rail_electric rail_fast ship" speed="11.18" length="0.10" shape="491.03,1196.88 491.03,1196.88"/>
    </edge>
    <edge id=":10173250677_0" function="internal">
        <lane id=":10173250677_0_0" index="0" disallow="tram rail_urban rail rail_electric rail_fast ship" speed="11.18" length="0.30" shape="488.54,1206.49 488.68,1206.76"/>
        <lane id=":10173250677_0_1" index="1" disallow="tram rail_urban rail rail_electric rail_fast ship" speed="11.18" length="0.30" shape="485.72,1208.01 485.86,1208.27"/>
        <lane id=":10173250677_0_2" index="2" disallow="tram rail_urban rail rail_electric rail_fast ship" speed="11.18" length="0.30" shape="482.90,1209.53 483.04,1209.79"/>
    </edge>
    <edge id=":10173250678_0" function="internal">
        <lane id=":10173250678_0_0" index="0" disallow="tram rail_urban rail rail_electric rail_fast ship" speed="11.18" length="0.30" shape="481.88,1194.10 482.02,1194.37"/>
        <lane id=":10173250678_0_1" index="1" disallow="tram rail_urban rail rail_electric rail_fast ship" speed="11.18" length="0.30" shape="479.06,1195.62 479.20,1195.88"/>
        <lane id=":10173250678_0_2" index="2" disallow="tram rail_urban rail rail_electric rail_fast ship" speed="11.18" length="0.30" shape="476.24,1197.13 476.38,1197.39"/>
    </edge>
    <edge id=":10173250679_0" function="internal">
        <lane id=":10173250679_0_0" index="0" disallow="tram rail_urban rail rail_electric rail_fast ship" speed="11.18" length="0.10" shape="472.08,1207.11 472.08,1207.11"/>
    </edge>
    <edge id=":11206693780_0" function="internal">
        <lane id=":11206693780_0_0" index="0" disallow="tram rail_urban rail rail_electric rail_fast ship" speed="11.18" length="0.30" shape="711.92,978.93 711.77,978.67"/>
        <lane id=":11206693780_0_1" index="1" disallow="tram rail_urban rail rail_electric rail_fast ship" speed="11.18" length="0.30" shape="714.73,977.41 714.59,977.15"/>
        <lane id=":11206693780_0_2" index="2" disallow="tram rail_urban rail rail_electric rail_fast ship" speed="11.18" length="0.30" shape="717.55,975.89 717.40,975.63"/>
    </edge>
    <edge id=":3562587893_0" function="internal">
        <lane id=":3562587893_0_0" index="0" disallow="tram rail_urban rail rail_electric rail_fast ship" speed="27.78" length="0.10" shape="669.85,916.15 669.78,916.18"/>
        <lane id=":3562587893_0_1" index="1" disallow="tram rail_urban rail rail_electric rail_fast ship" speed="27.78" length="0.10" shape="668.27,913.37 668.27,913.36"/>
    </edge>
    <edge id=":3562587893_2" function="internal">
        <lane id=":3562587893_2_0" index="0" disallow="tram rail_urban rail rail_electric rail_fast ship" speed="27.78" length="0.10" shape="665.23,907.73 665.11,907.80"/>
        <lane id=":3562587893_2_1" index="1" disallow="tram rail_urban rail rail_electric rail_fast ship" speed="27.78" length="0.10" shape="666.75,910.55 666.69,910.58"/>
    </edge>
    <edge id=":3562587894_0" function="internal">
        <lane id=":3562587894_0_0" index="0" disallow="tram rail_urban rail rail_electric rail_fast ship" speed="27.78" length="0.23" shape="687.49,906.38 687.69,906.27"/>
        <lane id=":3562587894_0_1" index="1" disallow="tram rail_urban rail rail_electric rail_fast ship" speed="27.78" length="0.23" shape="685.97,903.57 686.17,903.46"/>
    </edge>
    <edge id=":3562587894_2" function="internal">
        <lane id=":3562587894_2_0" index="0" disallow="tram rail_urban rail rail_electric rail_fast ship" speed="27.78" length="0.22" shape="683.13,897.83 682.93,897.93"/>
        <lane id=":3562587894_2_1" index="1" disallow="tram rail_urban rail rail_electric rail_fast ship" speed="27.78" length="0.22" shape="684.65,900.64 684.45,900.75"/>
    </edge>
    <edge id=":3562587895_0" function="internal">
        <lane id=":3562587895_0_0" index="0" disallow="tram rail_urban rail rail_electric rail_fast ship" speed="11.18" length="0.30" shape="678.14,919.81 678.01,919.58"/>
        <lane id=":3562587895_0_1" index="1" disallow="tram rail_urban rail rail_electric rail_fast ship" speed="11.18" length="0.30" shape="680.95,918.29 680.82,918.04"/>
        <lane id=":3562587895_0_2" index="2" disallow="tram rail_urban rail rail_electric rail_fast ship" speed="11.18" length="0.30" shape="683.77,916.77 683.62,916.50"/>
        <lane id=":3562587895_0_3" index="3" disallow="tram rail_urban rail rail_electric rail_fast ship" speed="11.18" length="0.30" shape="686.58,915.25 686.43,914.96"/>
    </edge>
    <edge id=":4207313524_0" function="internal">
        <lane id=":4207313524_0_0" index="0" disallow="tram rail_urban rail rail_electric rail_fast ship" speed="11.18" length="0.27" shape="545.22,963.94 545.31,964.11"/>
        <lane id=":4207313524_0_1" index="1" disallow="tram rail_urban rail rail_electric rail_fast ship" speed="11.18" length="0.27" shape="542.39,965.43 542.52,965.67"/>
        <lane id=":4207313524_0_2" index="2" disallow="tram rail_urban rail rail_electric rail_fast ship" speed="11.18" length="0.27" shape="539.55,966.92 539.72,967.23"/>
    </edge>
    <edge id=":4207313526_0" function="internal">
        <lane id=":4207313526_0_0" index="0" disallow="tram rail_urban rail rail_electric rail_fast ship" speed="27.78" length="0.27" shape="558.91,975.93 558.68,976.06"/>
        <lane id=":4207313526_0_1" index="1" disallow="tram rail_urban rail rail_electric rail_fast ship" speed="27.78" length="0.27" shape="557.39,973.12 557.14,973.25"/>
    </edge>
    <edge id=":4207313526_2" function="internal">
        <lane id=":4207313526_2_0" index="0" disallow="tram rail_urban rail rail_electric rail_fast ship" speed="27.78" length="0.32" shape="554.06,967.64 554.35,967.48"/>
        <lane id=":4207313526_2_1" index="1" disallow="tram rail_urban rail rail_electric rail_fast ship" speed="27.78" length="0.32" shape="555.60,970.45 555.87,970.30"/>
    </edge>
    <edge id=":4207313527_0" function="internal">
        <lane id=":4207313527_0_0" index="0" disallow="tram rail_urban rail rail_electric rail_fast ship" speed="11.18" length="0.29" shape="522.84,976.43 522.68,976.14"/>
        <lane id=":4207313527_0_1" index="1" disallow="tram rail_urban rail rail_electric rail_fast ship" speed="11.18" length="0.29" shape="525.64,974.89 525.50,974.63"/>
        <lane id=":4207313527_0_2" index="2" disallow="tram rail_urban rail rail_electric rail_fast ship" speed="11.18" length="0.29" shape="528.44,973.34 528.32,973.12"/>
    </edge>
    <edge id=":4207313532_0" function="internal">
        <lane id=":4207313532_0_0" index="0" disallow="tram rail_urban rail rail_electric rail_fast ship" speed="11.18" length="0.46" shape="557.11,985.28 557.40,985.82"/>
        <lane id=":4207313532_0_1" index="1" disallow="tram rail_urban rail rail_electric rail_fast ship" speed="11.18" length="0.46" shape="554.32,986.84 554.53,987.25"/>
        <lane id=":4207313532_0_2" index="2" disallow="tram rail_urban rail rail_electric rail_fast ship" speed="11.18" length="0.46" shape="551.52,988.40 551.67,988.67"/>
    </edge>
    <edge id=":4207313533_0" function="internal">
        <lane id=":4207313533_0_0" index="0" disallow="tram rail_urban rail rail_electric rail_fast ship" speed="27.78" length="0.32" shape="524.77,994.62 524.47,994.78"/>
        <lane id=":4207313533_0_1" index="1" disallow="tram rail_urban rail rail_electric rail_fast ship" speed="27.78" length="0.32" shape="523.23,991.81 522.96,991.96"/>
    </edge>
    <edge id=":4207313533_2" function="internal">
        <lane id=":4207313533_2_0" index="0" disallow="tram rail_urban rail rail_electric rail_fast ship" speed="27.78" length="0.27" shape="519.93,986.32 520.15,986.20"/>