<?xml version='1.0' encoding='utf-8'?>
<routes xmlns:xsi="http://www.w3.org/2001/XMLSchema-instance" xsi:noNamespaceSchemaLocation="http://sumo.dlr.de/xsd/routes_file.xsd">
    <vehicle id="0" depart="0.0">
        <route edges="5670818#1 5670818#2 5670818#3 5670818#4 5670818#5 68674962#63 68674962#64 68674962#65 68674962#66 68674962#67 68674962#68 -46694753#2 -46694753#1" />
    </vehicle>
    <vehicle id="2" depart="0.0">
        <route edges="5670818#8 5670818#9 387128267#15 387128267#16 387128267#17 387128267#18 387128267#19 1106469543#0 1106469543#1 -46694753#6 -46694753#5 -46694753#4 -46694753#3 -46694753#2 -46694753#1 -46694753#0 584971448#0 584971448#1" />
    </vehicle>
    <vehicle id="3" depart="0.0">
        <route edges="686125782#26 46694757#13 68674962#60 68674962#61 68674962#62 5670818#6 5670818#7 5670818#8 5670818#9 387128267#15 387128267#16 387128267#17 387128267#18 387128267#19 1106469543#0" />
    </vehicle>
    <vehicle id="4" depart="0.0">
        <route edges="46694753#5 46694753#6 -46694753#6 -46694753#5 -46694753#4 -46694753#3 -46694753#2 -46694753#1" />
    </vehicle>
    <vehicle id="5" depart="0.0">
        <route edges="320584278#10 320584278#11 686125782#15 686125782#16 686125782#17 -46694753#3 -46694753#2 -46694753#1 -46694753#0 587061858#0 587061858#1 587061858#2 46694760#19 46694760#20" />
    </vehicle>
    <vehicle id="6" depart="0.0">
        <route edges="-46694753#1 -46694753#0 46694753#0 46694753#1 46694753#2 68674962#69 68674962#70 68674962#71 320584278#13 320584278#14 320584278#15 320584278#16 320584278#17" />
    </vehicle>
    <vehicle id="7" depart="0.0">
        <route edges="5670818#1 5670818#2 5670818#3 5670818#4 5670818#5 68674962#63 68674962#64 68674962#65 46694760#16 46694760#17 46694760#18 46694760#19 46694760#20" />
    </vehicle>
    <vehicle id="8" depart="0.0">
        <route edges="320584278#10 320584278#11 686125782#15 686125782#16 686125782#17 686125782#18 686125782#19 686125782#20 686125782#21 686125782#22 686125782#23 5670818#7 5670818#8 5670818#9 5670818#10 5670818#11" />
    </vehicle>
    <vehicle id="9" depart="0.0">
        <route edges="686125782#16 686125782#17 -46694753#3 -46694753#2 -46694753#1" />
    </vehicle>
    <vehicle id="10" depart="0.0">
        <route edges="686125782#13 686125782#14 686125782#15 686125782#16 686125782#17 -46694753#3 -46694753#2 -46694753#1 -46694753#0 584971448#0 584971448#1" />
    </vehicle>
    <vehicle id="11" depart="0.0">
        <route edges="387128267#19 1106469543#0 1106469543#1 -46694753#6 -46694753#5 -46694753#4 -46694753#3 68674962#69 68674962#70 68674962#71 320584278#13 320584278#14" />
    </vehicle>
    <vehicle id="12" depart="0.0">
        <route edges="68674962#66 68674962#67 68674962#68 46694753#3 46694753#4 46694753#5 46694753#6 46694753#7 46694753#8" />
    </vehicle>
    <vehicle id="13" depart="0.0">
        <route edges="-46694753#8 -46694753#7 -46694753#6 -46694753#5 -46694753#4 -46694753#3 68674962#69 68674962#70 68674962#71 320584278#13 320584278#14 320584278#15 195743185#9 195743185#10" />
    </vehicle>
    <vehicle id="14" depart="0.0">
        <route edges="686125782#19 686125782#20 46694760#15 46694760#16 46694760#17 46694760#18 587061858#3 587061858#4 587061858#5 5670818#3 5670818#4" />
    </vehicle>
    <vehicle id="15" depart="0.0">
        <route edges="686125782#13 686125782#14 686125782#15 686125782#16 686125782#17 -46694753#3 -46694753#2 -46694753#1 -46694753#0 587061858#0 587061858#1" />
    </vehicle>
    <vehicle id="16" depart="0.0">
        <route edges="46694760#10 46694760#11 387128267#18 387128267#19 1106469543#0 1106469543#1 -46694753#6 -46694753#5 -46694753#4 -46694753#3 68674962#69 68674962#70" />
    </vehicle>
    <vehicle id="17" depart="0.0">
        <route edges="46694753#1 46694753#2 46694753#3 686125782#18 686125782#19 686125782#20 686125782#21 686125782#22 686125782#23 5670818#7 5670818#8 5670818#9 5670818#10 5670818#11" />
    </vehicle>
    <vehicle id="18" depart="0.0">
        <route edges="686125782#17 -46694753#3 -46694753#2 -46694753#1 -46694753#0 587061858#0 587061858#1 587061858#2 587061858#3 587061858#4 587061858#5 5670818#3 5670818#4" />
    </vehicle>
    <vehicle id="19" depart="0.0">
        <route edges="686125782#22 686125782#23 5670818#7 5670818#8 5670818#9 5670818#10 5670818#11" />
    </vehicle>
    <vehicle id="20" depart="0.0">
        <route edges="5670818#4 5670818#5 68674962#63 68674962#64 68674962#65 68674962#66 68674962#67 68674962#68 46694753#3 46694753#4 46694753#5 46694753#6 -46694753#6 -46694753#5" />
    </vehicle>
    <vehicle id="21" depart="0.0">
        <route edges="320584278#10 320584278#11 686125782#15 686125782#16 686125782#17 -46694753#3 -46694753#2 -46694753#1 -46694753#0 46694753#0 46694753#1" />
    </vehicle>
    <vehicle id="22" depart="0.0">
        <route edges="-46694753#8 -46694753#7 -46694753#6 -46694753#5 -46694753#4 686125782#18 686125782#19 686125782#20 686125782#21 686125782#22 686125782#23 5670818#7 5670818#8 5670818#9 387128267#15 387128267#16" />
    </vehicle>
    <vehicle id="23" depart="0.0">
        <route edges="-46694753#8 -46694753#7 -46694753#6 -46694753#5 -46694753#4 -46694753#3 -46694753#2 -46694753#1 -46694753#0 46694753#0 46694753#1" />
    </vehicle>
    <vehicle id="24" depart="0.0">
        <route edges="5670818#1 5670818#2 5670818#3 5670818#4 5670818#5 68674962#63 68674962#64 68674962#65 68674962#66 68674962#67 68674962#68 46694753#3 46694753#4 46694753#5 46694753#6 46694753#7 46694753#8" />
    </vehicle>
    <vehicle id="26" depart="0.0">
        <route edges="320584278#14 320584278#15 195743185#9 195743185#10 195743185#11 46694753#0 46694753#1 46694753#2 46694753#3 686125782#18 686125782#19 686125782#20 46694760#15 68674962#66 68674962#67" />
    </vehicle>
    <vehicle id="27" depart="0.0">
        <route edges="5670818#1 5670818#2 5670818#3 5670818#4" />
    </vehicle>
    <vehicle id="28" depart="0.0">
        <route edges="195743185#10 195743185#11 587061858#0 587061858#1" />
    </vehicle>
    <vehicle id="30" depart="0.0">
        <route edges="68674962#70 68674962#71 320584278#13 320584278#14 320584278#15 195743185#9 195743185#10 195743185#11 46694753#0 46694753#1 46694753#2 46694753#3 686125782#18 686125782#19 686125782#20 686125782#21 686125782#22 686125782#23 5670818#7 5670818#8" />
    </vehicle>
    <vehicle id="31" depart="0.0">
        <route edges="46694760#13 46694760#14 46694760#15 68674962#66 68674962#67 68674962#68 -46694753#2 -46694753#1 -46694753#0 584971448#0 584971448#1" />
    </vehicle>
    <vehicle id="33" depart="0.0">
        <route edges="320584278#10 320584278#11 686125782#15 686125782#16 686125782#17 -46694753#3 -46694753#2 -46694753#1" />
    </vehicle>
    <vehicle id="34" depart="0.0">
        <route edges="387128267#13 387128267#14 387128267#15 387128267#16 387128267#17 387128267#18 387128267#19 1106469543#0 1106469543#1 -46694753#6 -46694753#5 -46694753#4 -46694753#3 -46694753#2 -46694753#1 -46694753#0 46694753#0 46694753#1" />
    </vehicle>
    <vehicle id="35" depart="0.0">
        <route edges="320584278#10 320584278#11 686125782#15 686125782#16 686125782#17 686125782#18 686125782#19 686125782#20 46694760#15 68674962#66 68674962#67" />
    </vehicle>
    <vehicle id="36" depart="0.0">
        <route edges="686125782#25 686125782#26 46694757#13 68674962#60 68674962#61 68674962#62 68674962#63 68674962#64 68674962#65 68674962#66 68674962#67 68674962#68 46694753#3 46694753#4 46694753#5" />
    </vehicle>
    <vehicle id="38" depart="0.0">
        <route edges="68674962#58 68674962#59 68674962#60 68674962#61 68674962#62 5670818#6 5670818#7 5670818#8 5670818#9 387128267#15 387128267#16 387128267#17 46694760#12 46694760#13" />
    </vehicle>
    <vehicle id="39" depart="0.0">
        <route edges="320584278#14 320584278#15 195743185#9 195743185#10 195743185#11 46694753#0 46694753#1 46694753#2 46694753#3 686125782#18 686125782#19 686125782#20 686125782#21 686125782#22 686125782#23 5670818#7 5670818#8 5670818#9 387128267#15 387128267#16 387128267#17 387128267#18 387128267#19" />
    </vehicle>
    <vehicle id="40" depart="0.0">
        <route edges="46694760#13 46694760#14 46694760#15 68674962#66 68674962#67 68674962#68 -46694753#2 -46694753#1 -46694753#0 46694753#0 46694753#1" />
    </vehicle>
    <vehicle id="41" depart="0.0">
        <route edges="46694760#13 46694760#14 686125782#21 686125782#22 686125782#23 686125782#24 686125782#25 686125782#26 46694757#13 68674962#60 68674962#61" />
    </vehicle>
    <vehicle id="43" depart="0.0">
        <route edges="68674962#70 68674962#71 320584278#13 320584278#14 320584278#15 195743185#9 195743185#10 195743185#11 587061858#0 587061858#1 587061858#2 46694760#19 46694760#20" />
    </vehicle>
    <vehicle id="44" depart="0.0">
        <route edges="-46694753#8 -46694753#7 -46694753#6 -46694753#5" />
    </vehicle>
    <vehicle id="45" depart="0.0">
        <route edges="-46694753#8 -46694753#7 -46694753#6 -46694753#5 -46694753#4 -46694753#3 -46694753#2 -46694753#1 -46694753#0 587061858#0 587061858#1 587061858#2 587061858#3 587061858#4 587061858#5 5670818#3 5670818#4" />
    </vehicle>
    <vehicle id="46" depart="0.0">
        <route edges="686125782#13 686125782#14 686125782#15 686125782#16 686125782#17 686125782#18 686125782#19 686125782#20 686125782#21 686125782#22 686125782#23 5670818#7 5670818#8 5670818#9 387128267#15 387128267#16 387128267#17 46694760#12 46694760#13" />
    </vehicle>
    <vehicle id="48" depart="0.0">
        <route edges="68674962#70 68674962#71 320584278#13 320584278#14 320584278#15 195743185#9 195743185#10 195743185#11 587061858#0 587061858#1 587061858#2 46694760#19 46694760#20" />
    </vehicle>
    <vehicle id="49" depart="0.0">
        <route edges="68674962#67 68674962#68 46694753#3 686125782#18 686125782#19 686125782#20 686125782#21 686125782#22 686125782#23 686125782#24 686125782#25" />
    </vehicle>
    <vehicle id="50" depart="0.0">
        <route edges="-46694753#1 -46694753#0 587061858#0 587061858#1" />
    </vehicle>
    <vehicle id="51" depart="0.0">
        <route edges="5670818#4 5670818#5 68674962#63 68674962#64 68674962#65 46694760#16 46694760#17 46694760#18 46694760#19 46694760#20" />
    </vehicle>
    <vehicle id="52" depart="0.0">
        <route edges="320584278#14 320584278#15 195743185#9 195743185#10 195743185#11 46694753#0 46694753#1 46694753#2 46694753#3 686125782#18 686125782#19 686125782#20 686125782#21 686125782#22 686125782#23 5670818#7 5670818#8" />
    </vehicle>
    <vehicle id="53" depart="0.0">
        <route edges="-46694753#8 -46694753#7 -46694753#6 -46694753#5 -46694753#4 686125782#18 686125782#19 686125782#20 686125782#21 686125782#22 686125782#23 5670818#7 5670818#8 5670818#9 387128267#15 387128267#16 387128267#17 46694760#12 46694760#13" />
    </vehicle>
    <vehicle id="54" depart="0.0">
        <route edges="46694757#11 46694757#12 46694757#13 68674962#60 68674962#61 68674962#62 68674962#63 68674962#64 68674962#65 68674962#66 68674962#67" />
    </vehicle>
    <vehicle id="55" depart="0.0">
        <route edges="686125782#25 686125782#26 46694757#13 68674962#60 68674962#61 68674962#62 68674962#63 68674962#64 68674962#65 68674962#66 68674962#67 68674962#68 -46694753#2 -46694753#1 -46694753#0 46694753#0 46694753#1" />
    </vehicle>
    <vehicle id="56" depart="0.0">
        <route edges="46694757#8 46694757#9 387128267#12 387128267#13 387128267#14 387128267#15 387128267#16 387128267#17 387128267#18 387128267#19 1106469543#0 1106469543#1 -46694753#6 -46694753#5 -46694753#4 -46694753#3 68674962#69 68674962#70 68674962#71 320584278#13 320584278#14 320584278#15 320584278#16 320584278#17" />
    </vehicle>
    <vehicle id="57" depart="0.0">
        <route edges="68674962#58 68674962#59 68674962#60 68674962#61 68674962#62 5670818#6 686125782#24 686125782#25 686125782#26 686125782#27 686125782#28" />
    </vehicle>
    <vehicle id="58" depart="0.0">
        <route edges="387128267#13 387128267#14 387128267#15 387128267#16 387128267#17 46694760#12 46694760#13 46694760#14 686125782#21 686125782#22 686125782#23 5670818#7 5670818#8" />
    </vehicle>
    <vehicle id="59" depart="0.0">
        <route edges="46694760#17 46694760#18 587061858#3 587061858#4 587061858#5 5670818#3 5670818#4 5670818#5 68674962#63 68674962#64 68674962#65 68674962#66 68674962#67 68674962#68 68674962#69 68674962#70 68674962#71 320584278#13 320584278#14" />
    </vehicle>
    <vehicle id="60" depart="0.0">
        <route edges="587061858#1 587061858#2 46694760#19 46694760#20" />
    </vehicle>
    <vehicle id="61" depart="0.0">
        <route edges="587061858#4 587061858#5 5670818#3 5670818#4 5670818#5 68674962#63 68674962#64 68674962#65 46694760#16 46694760#17 46694760#18 46694760#19 46694760#20" />
    </vehicle>
    <vehicle id="62" depart="0.0">
        <route edges="-46694753#1 -46694753#0 46694753#0 46694753#1 46694753#2 46694753#3 46694753#4 46694753#5" />
    </vehicle>
    <vehicle id="63" depart="0.0">
        <route edges="-46694753#1 -46694753#0 587061858#0 587061858#1 587061858#2 587061858#3 587061858#4 587061858#5 5670818#3 5670818#4 5670818#5 68674962#63 68674962#64" />
    </vehicle>
    <vehicle id="64" depart="0.0">
        <route edges="686125782#25 686125782#26 46694757#13 68674962#60 68674962#61 68674962#62 68674962#63 68674962#64 68674962#65 68674962#66 68674962#67 68674962#68 46694753#3 686125782#18 686125782#19 686125782#20 686125782#21 686125782#22" />
    </vehicle>
    <vehicle id="65" depart="0.0">
        <route edges="387128267#13 387128267#14 387128267#15 387128267#16 387128267#17 387128267#18 387128267#19 1106469543#0 1106469543#1 -46694753#6 -46694753#5" />
    </vehicle>
    <vehicle id="66" depart="0.0">
        <route edges="686125782#25 686125782#26 46694757#13 68674962#60 68674962#61 68674962#62 68674962#63 68674962#64 68674962#65 68674962#66 68674962#67" />
    </vehicle>
    <vehicle id="67" depart="0.0">
        <route edges="-46694753#8 -46694753#7 -46694753#6 -46694753#5 -46694753#4 686125782#18 686125782#19 686125782#20 46694760#15 46694760#16 46694760#17" />
    </vehicle>
    <vehicle id="68" depart="0.0">
        <route edges="-46694753#5 -46694753#4 -46694753#3 -46694753#2 -46694753#1 -46694753#0 587061858#0 587061858#1 587061858#2 587061858#3 587061858#4 587061858#5 587061858#6 587061858#7" />
    </vehicle>
    <vehicle id="69" depart="0.0">
        <route edges="587061858#1 587061858#2 587061858#3 587061858#4 587061858#5 5670818#3 5670818#4 5670818#5 68674962#63 68674962#64 68674962#65 68674962#66 68674962#67 68674962#68 68674962#69 68674962#70 68674962#71 320584278#13 320584278#14" />
    </vehicle>
    <vehicle id="70" depart="0.0">
        <route edges="46694757#8 46694757#9 387128267#12 387128267#13 387128267#14 5670818#10 5670818#11" />
    </vehicle>
    <vehicle id="71" depart="0.0">
        <route edges="320584278#14 320584278#15 195743185#9 195743185#10 195743185#11 46694753#0 46694753#1 46694753#2 46694753#3 686125782#18 686125782#19 686125782#20 686125782#21 686125782#22 686125782#23 686125782#24 686125782#25 686125782#26 686125782#27 686125782#28" />
    </vehicle>
    <vehicle id="73" depart="0.0">
        <route edges="46694760#10 46694760#11 387128267#18 387128267#19 1106469543#0 1106469543#1 -46694753#6 -46694753#5 -46694753#4 -46694753#3 -46694753#2 -46694753#1 -46694753#0 587061858#0 587061858#1" />
    </vehicle>
    <vehicle id="74" depart="0.0">
        <route edges="320584278#10 320584278#11 686125782#15 686125782#16 686125782#17 46694753#4 46694753#5" />
    </vehicle>
    <vehicle id="75" depart="0.0">
        <route edges="68674962#70 68674962#71 320584278#13 320584278#14 320584278#15 195743185#9 195743185#10 195743185#11 46694753#0 46694753#1 46694753#2 46694753#3 686125782#18 686125782#19 686125782#20 686125782#21 686125782#22 686125782#23 5670818#7 5670818#8" />
    </vehicle>
    <vehicle id="76" depart="0.0">
        <route edges="46694757#11 46694757#12 46694757#13 68674962#60 68674962#61 68674962#62 68674962#63 68674962#64 68674962#65 46694760#16 46694760#17 46694760#18 46694760#19 46694760#20" />
    </vehicle>
    <vehicle id="77" depart="0.0">
        <route edges="-584971448#1 -584971448#0 46694753#0 46694753#1 46694753#2 46694753#3 686125782#18 686125782#19 686125782#20 686125782#21 686125782#22 686125782#23 5670818#7 5670818#8 5670818#9 387128267#15 387128267#16" />
    </vehicle>
    <vehicle id="78" depart="0.0">
        <route edges="387128267#16 387128267#17 46694760#12 46694760#13 46694760#14 686125782#21 686125782#22 686125782#23 5670818#7 5670818#8 5670818#9 5670818#10 5670818#11" />
    </vehicle>
    <vehicle id="80" depart="0.0">
        <route edges="-46694753#5 -46694753#4 -46694753#3 -46694753#2 -46694753#1 -46694753#0 587061858#0 587061858#1 587061858#2 587061858#3 587061858#4 587061858#5 5670818#3 5670818#4" />
    </vehicle>
    <vehicle id="81" depart="0.0">
        <route edges="320584278#10 320584278#11 686125782#15 686125782#16 686125782#17 686125782#18 686125782#19 686125782#20 686125782#21 686125782#22 686125782#23 686125782#24 686125782#25 686125782#26 46694757#13 68674962#60 68674962#61" />
    </vehicle>
    <vehicle id="82" depart="0.0">
        <route edges="686125782#22 686125782#23 5670818#7 5670818#8 5670818#9 387128267#15 387128267#16 387128267#17 387128267#18 387128267#19 1106469543#0 1106469543#1 -46694753#6 -46694753#5" />
    </vehicle>
    <vehicle id="83" depart="0.0">
        <route edges="320584278#10 320584278#11 686125782#15 686125782#16 686125782#17 686125782#18 686125782#19 686125782#20 686125782#21 686125782#22 686125782#23 5670818#7 5670818#8" />
    </vehicle>
    <vehicle id="84" depart="0.0">
        <route edges="320584278#10 320584278#11 320584278#12 320584278#13 320584278#14" />
    </vehicle>
    <vehicle id="85" depart="0.0">
        <route edges="68674962#61 68674962#62 5670818#6 5670818#7 5670818#8 5670818#9 5670818#10 5670818#11" />
    </vehicle>
    <vehicle id="87" depart="0.0">
        <route edges="686125782#13 686125782#14 320584278#12 320584278#13 320584278#14 320584278#15 320584278#16 320584278#17" />
    </vehicle>
    <vehicle id="88" depart="0.0">
        <route edges="-46694753#8 -46694753#7 -46694753#6 -46694753#5 -46694753#4 686125782#18 686125782#19 686125782#20 686125782#21 686125782#22 686125782#23 5670818#7 5670818#8 5670818#9 387128267#15 387128267#16 387128267#17 46694760#12 46694760#13" />
    </vehicle>
    <vehicle id="89" depart="0.0">
        <route edges="46694753#5 46694753#6 -46694753#6 -46694753#5 -46694753#4 686125782#18 686125782#19 686125782#20 46694760#15 46694760#16 46694760#17" />
    </vehicle>
    <vehicle id="90" depart="0.0">
        <route edges="5670818#8" />
    </vehicle>
    <vehicle id="91" depart="0.0">
        <route edges="68674962#70 68674962#71 320584278#13 320584278#14 320584278#15 195743185#9 195743185#10" />
    </vehicle>
    <vehicle id="92" depart="0.0">
        <route edges="46694753#5 46694753#6 46694753#7 46694753#8" />
    </vehicle>
    <vehicle id="93" depart="0.0">
        <route edges="686125782#22 686125782#23 5670818#7 5670818#8 5670818#9 387128267#15 387128267#16 387128267#17 387128267#18 387128267#19" />
    </vehicle>
    <vehicle id="94" depart="0.0">
        <route edges="195743185#7 195743185#8 195743185#9 195743185#10 195743185#11 46694753#0 46694753#1 46694753#2 46694753#3 686125782#18 686125782#19 686125782#20 686125782#21 686125782#22 686125782#23 5670818#7 5670818#8 5670818#9 387128267#15 387128267#16 387128267#17 46694760#12 46694760#13" />
    </vehicle>
    <vehicle id="95" depart="0.0">
        <route edges="46694753#5 46694753#6 -46694753#6 -46694753#5 -46694753#4 -46694753#3 -46694753#2 -46694753#1 -46694753#0 46694753#0 46694753#1" />
    </vehicle>
    <vehicle id="96" depart="0.0">
        <route edges="320584278#14 320584278#15 195743185#9 195743185#10 195743185#11 587061858#0 587061858#1 587061858#2 587061858#3 587061858#4 587061858#5 5670818#3 5670818#4 5670818#5 68674962#63 68674962#64" />
    </vehicle>
    <vehicle id="97" depart="0.0">
        <route edges="46694757#11 46694757#12 46694757#13 68674962#60 68674962#61 68674962#62 5670818#6 686125782#24 686125782#25" />
    </vehicle>
    <vehicle id="98" depart="0.0">
        <route edges="46694760#13 46694760#14 46694760#15 68674962#66 68674962#67 68674962#68 46694753#3 46694753#4 46694753#5 46694753#6 -46694753#6 -46694753#5" />
    </vehicle>
    <vehicle id="99" depart="0.0">
        <route edges="68674962#71 320584278#13 320584278#14 320584278#15 195743185#9 195743185#10 195743185#11 46694753#0 46694753#1 46694753#2 46694753#3 686125782#18 686125782#19 686125782#20 686125782#21 686125782#22" />
    </vehicle>
</routes>